Version 4
SHEET 1 880 680
WIRE 96 48 -64 48
WIRE 224 48 176 48
WIRE 224 80 224 48
WIRE -64 96 -64 48
WIRE -64 96 -128 96
WIRE 16 96 -64 96
WIRE 16 192 16 176
WIRE 112 192 16 192
WIRE 272 192 176 192
WIRE -336 240 -448 240
WIRE -128 240 -128 176
WIRE -128 240 -272 240
WIRE -48 240 -128 240
WIRE 272 272 272 192
WIRE -128 288 -128 240
WIRE -448 304 -448 240
WIRE 16 416 16 288
WIRE 224 416 16 416
WIRE 16 432 16 416
WIRE 224 432 224 416
WIRE -448 512 -448 384
WIRE -128 512 -128 368
WIRE -128 512 -448 512
WIRE 16 512 -128 512
WIRE 224 512 224 496
WIRE 224 512 16 512
WIRE 272 512 272 352
WIRE 272 512 224 512
WIRE 16 560 16 512
FLAG 224 80 0
FLAG 16 560 0
FLAG 272 192 Output
FLAG -448 240 Input
SYMBOL voltage -448 288 R0
WINDOW 123 24 124 Left 2
WINDOW 39 0 0 Left 0
SYMATTR Value2 AC 1 0
SYMATTR InstName V1
SYMATTR Value SINE(0 25m 1k)
SYMBOL cap -272 224 R90
WINDOW 0 0 32 VBottom 2
WINDOW 3 32 32 VTop 2
SYMATTR InstName C1
SYMATTR Value 6µ
SYMBOL voltage 80 48 R270
WINDOW 0 32 56 VTop 2
WINDOW 3 -32 56 VBottom 2
WINDOW 123 0 0 Left 0
WINDOW 39 0 0 Left 0
SYMATTR InstName V2
SYMATTR Value 15
SYMBOL res -144 80 R0
SYMATTR InstName R1
SYMATTR Value 66.43k
SYMBOL res -144 272 R0
SYMATTR InstName R2
SYMATTR Value 22k
SYMBOL res 0 80 R0
SYMATTR InstName R3
SYMATTR Value 4.7k
SYMBOL npn -48 192 R0
SYMATTR InstName Q1
SYMATTR Value 2N2222
SYMBOL cap 176 176 R90
WINDOW 0 0 32 VBottom 2
WINDOW 3 32 32 VTop 2
SYMATTR InstName C2
SYMATTR Value 0.34µ
SYMBOL cap 240 496 R180
WINDOW 0 24 56 Left 2
WINDOW 3 24 8 Left 2
SYMATTR InstName Ce
SYMATTR Value 101.36µ
SYMBOL res 0 416 R0
SYMATTR InstName Re
SYMATTR Value 2.14k
SYMBOL res 256 256 R0
SYMATTR InstName Rl
SYMATTR Value 47k
TEXT -408 -32 Left 2 ;Experiment 7 - BJT Common Emitter Current Series Feedback without Feedback
TEXT -496 584 Left 2 !.ac dec 10 1 1G
