Version 4
SHEET 1 880 680
WIRE 288 -80 -48 -80
WIRE 480 -80 288 -80
WIRE 480 -48 480 -80
WIRE 288 -16 288 -80
WIRE 288 96 288 64
WIRE 480 96 480 32
WIRE 288 128 288 96
WIRE -48 176 -48 -80
WIRE 16 176 -48 176
WIRE 208 176 96 176
WIRE 224 176 208 176
WIRE 288 256 288 224
WIRE 288 288 288 256
FLAG 288 288 0
FLAG 480 96 0
FLAG 208 176 B
FLAG 288 256 E
FLAG 288 96 C
SYMBOL npn 224 128 R0
SYMATTR InstName Q1
SYMATTR Value 2N2222
SYMBOL res 272 -32 R0
SYMATTR InstName R1
SYMATTR Value 1k
SYMBOL res 112 160 R90
WINDOW 0 0 56 VBottom 2
WINDOW 3 32 56 VTop 2
SYMATTR InstName R2
SYMATTR Value 5k
SYMBOL voltage 480 -64 R0
WINDOW 123 0 0 Left 0
WINDOW 39 0 0 Left 0
SYMATTR InstName V1
SYMATTR Value 10
TEXT 80 -152 Left 2 ;BJT Saturation Characteristics
TEXT -50 312 Left 2 !.op
