Version 4
SHEET 1 880 680
WIRE 272 -32 80 -32
WIRE 80 48 80 -32
WIRE 272 48 272 -32
WIRE 272 192 272 128
WIRE 80 208 80 128
WIRE 80 224 80 208
WIRE -176 272 -224 272
WIRE 0 272 -96 272
WIRE 16 272 0 272
WIRE 80 352 80 320
WIRE -224 400 -224 272
WIRE 80 400 80 352
WIRE 80 400 -224 400
WIRE 80 448 80 400
FLAG 80 448 0
FLAG 272 192 0
FLAG 0 272 B
FLAG 80 352 E
FLAG 80 208 C
SYMBOL voltage 272 32 R0
WINDOW 123 0 0 Left 0
WINDOW 39 0 0 Left 0
SYMATTR InstName V1
SYMATTR Value 10
SYMBOL npn 16 224 R0
SYMATTR InstName Q1
SYMATTR Value 2N2222
SYMBOL res 64 32 R0
SYMATTR InstName R1
SYMATTR Value 1k
SYMBOL res -80 256 R90
WINDOW 0 0 56 VBottom 2
WINDOW 3 32 56 VTop 2
SYMATTR InstName R2
SYMATTR Value 5k
TEXT -226 472 Left 2 !.op
TEXT -24 -112 Left 2 ;BJT Cut-Off Characteristics
