Version 4
SHEET 1 880 680
WIRE 480 -16 320 -16
WIRE 320 16 320 -16
WIRE 480 16 480 -16
WIRE 480 144 480 96
WIRE 320 160 320 96
WIRE 256 240 176 240
WIRE 272 240 256 240
WIRE 96 336 96 240
WIRE 208 336 96 336
WIRE 320 336 320 256
WIRE 320 336 208 336
WIRE 208 368 208 336
FLAG 208 368 0
FLAG 480 144 0
FLAG 256 240 G
FLAG 320 176 D
SYMBOL res 192 224 R90
WINDOW 0 0 56 VBottom 2
WINDOW 3 32 56 VTop 2
SYMATTR InstName R1
SYMATTR Value 5k
SYMBOL nmos 272 160 R0
SYMATTR InstName M1
SYMBOL res 304 0 R0
SYMATTR InstName R2
SYMATTR Value 1k
SYMBOL voltage 480 0 R0
WINDOW 123 0 0 Left 0
WINDOW 39 0 0 Left 0
SYMATTR InstName VDD
SYMATTR Value 10V
TEXT 88 392 Left 2 !.op
TEXT 248 -64 Left 2 ;MOSFET Cut-off Characteristics
