Version 4
SHEET 1 880 680
WIRE 192 96 48 96
WIRE 400 96 256 96
WIRE 496 96 400 96
WIRE 400 144 400 96
WIRE 48 160 48 96
WIRE 496 160 496 96
WIRE 48 272 48 240
WIRE 240 272 48 272
WIRE 400 272 400 208
WIRE 400 272 240 272
WIRE 496 272 496 240
WIRE 496 272 400 272
WIRE 240 304 240 272
FLAG 240 304 0
SYMBOL voltage 48 144 R0
WINDOW 123 0 0 Left 0
WINDOW 39 0 0 Left 0
SYMATTR InstName V1
SYMATTR Value SINE(0 22 50)
SYMBOL diode 192 112 R270
WINDOW 0 32 32 VTop 2
WINDOW 3 0 32 VBottom 2
SYMATTR InstName D1
SYMATTR Value 1N914
SYMBOL res 480 144 R0
SYMATTR InstName R1
SYMATTR Value 470
SYMBOL cap 384 144 R0
SYMATTR InstName C1
SYMATTR Value 470m
TEXT 16 328 Left 2 !.tran 5s
TEXT 112 16 Left 2 ;Half Wave Rectifier with Filter
