Version 4
SHEET 1 880 680
WIRE 400 -128 240 -128
WIRE 240 -64 240 -128
WIRE 240 -64 64 -64
WIRE 240 -48 240 -64
WIRE 400 -48 400 -128
WIRE 64 64 64 -64
WIRE 400 80 400 32
WIRE 240 96 240 32
WIRE 64 176 64 144
WIRE 192 176 64 176
WIRE 64 224 64 176
WIRE 240 304 240 192
WIRE 240 304 64 304
WIRE 240 368 240 304
FLAG 240 368 0
FLAG 400 80 0
SYMBOL res 48 48 R0
SYMATTR InstName R1
SYMATTR Value 100k
SYMBOL res 48 208 R0
SYMATTR InstName R2
SYMATTR Value 15k
SYMBOL res 224 -64 R0
SYMATTR InstName Rd
SYMATTR Value 200
SYMBOL voltage 400 -64 R0
WINDOW 123 0 0 Left 0
WINDOW 39 0 0 Left 0
SYMATTR InstName Vdd
SYMATTR Value 24
SYMBOL nmos 192 96 R0
SYMATTR InstName M1
TEXT 46 392 Left 2 !.op
TEXT 80 -216 Left 2 ;MOSFET Voltage Divider Bias
