Version 4
SHEET 1 880 680
WIRE 496 -160 288 -160
WIRE 496 -112 496 -160
WIRE 288 0 288 -160
WIRE 496 48 496 -32
WIRE 288 128 288 80
WIRE 288 128 16 128
WIRE 288 160 288 128
WIRE 16 240 16 128
WIRE 208 240 96 240
WIRE 240 240 208 240
WIRE 288 384 288 256
FLAG 288 384 0
FLAG 496 48 0
FLAG 208 240 G
FLAG 288 160 D
SYMBOL res 112 224 R90
WINDOW 0 0 56 VBottom 2
WINDOW 3 32 56 VTop 2
SYMATTR InstName Rg
SYMATTR Value 5k
SYMBOL res 304 96 R180
WINDOW 0 36 76 Left 2
WINDOW 3 36 40 Left 2
SYMATTR InstName Rd
SYMATTR Value 1k
SYMBOL nmos 240 160 R0
SYMATTR InstName M1
SYMBOL voltage 496 -128 R0
WINDOW 123 0 0 Left 0
WINDOW 39 0 0 Left 0
SYMATTR InstName Vdd
SYMATTR Value 10
TEXT 10 408 Left 2 !.op
TEXT 48 -232 Left 2 ;MOSFET Saturation Characteristics
