Version 4
SHEET 1 880 680
WIRE 352 -112 208 -112
WIRE 208 -64 208 -112
WIRE 352 -16 352 -112
WIRE 208 80 208 16
WIRE 208 80 32 80
WIRE 208 112 208 80
WIRE -48 176 -48 80
WIRE 128 176 -48 176
WIRE 160 176 128 176
WIRE 160 192 160 176
WIRE 304 208 208 208
WIRE 352 208 352 64
WIRE 352 208 304 208
WIRE 304 272 304 208
FLAG 128 176 G
FLAG 208 112 D
FLAG 304 272 0
SYMBOL nmos 160 112 R0
SYMATTR InstName M1
SYMBOL res 48 64 R90
WINDOW 0 0 56 VBottom 2
WINDOW 3 32 56 VTop 2
SYMATTR InstName Rg
SYMATTR Value 10000000
SYMBOL res 224 32 R180
WINDOW 0 36 76 Left 2
WINDOW 3 36 40 Left 2
SYMATTR InstName Rd
SYMATTR Value 4.7k
SYMBOL voltage 352 -32 R0
WINDOW 123 0 0 Left 0
WINDOW 39 0 0 Left 0
SYMATTR InstName V1
SYMATTR Value 24
TEXT -72 280 Left 2 !.op
TEXT 8 -200 Left 2 ;MOSFET Drain Feedback Bias
