Version 4
SHEET 1 880 680
WIRE 368 -176 160 -176
WIRE 368 -80 368 -176
WIRE 160 -48 160 -176
WIRE 368 80 368 0
WIRE 160 96 160 32
WIRE 160 112 160 96
WIRE -64 192 -80 192
WIRE 96 192 16 192
WIRE 112 192 96 192
WIRE -80 288 -80 192
WIRE 64 288 -80 288
WIRE 160 288 160 208
WIRE 160 288 64 288
WIRE 64 320 64 288
FLAG 64 320 0
FLAG 368 80 0
FLAG 96 192 G
FLAG 160 96 D
SYMBOL nmos 112 112 R0
SYMATTR InstName M1
SYMATTR Value IRF150
SYMBOL res 32 176 R90
WINDOW 0 0 56 VBottom 2
WINDOW 3 32 56 VTop 2
SYMATTR InstName Rg
SYMATTR Value 5k
SYMBOL res 144 -64 R0
SYMATTR InstName Rd
SYMATTR Value 1k
SYMBOL voltage 368 -96 R0
WINDOW 123 0 0 Left 0
WINDOW 39 0 0 Left 0
SYMATTR InstName Vdd
SYMATTR Value 10
TEXT -82 344 Left 2 !.op
TEXT -32 -216 Left 2 ;MOSFET Cut off Characteristics
