Version 4
SHEET 1 880 680
WIRE 400 -128 144 -128
WIRE 144 -64 144 -128
WIRE 144 -64 64 -64
WIRE 240 -64 144 -64
WIRE 240 -48 240 -64
WIRE 400 -48 400 -128
WIRE 64 64 64 -64
WIRE 240 80 240 32
WIRE 400 80 400 32
WIRE 240 96 240 80
WIRE 64 176 64 144
WIRE 176 176 64 176
WIRE 192 176 176 176
WIRE 64 224 64 176
WIRE 160 304 64 304
WIRE 240 304 240 192
WIRE 240 304 160 304
WIRE 160 352 160 304
FLAG 400 80 0
FLAG 176 176 G
FLAG 240 80 D
FLAG 160 352 0
SYMBOL res 48 48 R0
SYMATTR InstName R1
SYMATTR Value 100k
SYMBOL res 48 208 R0
SYMATTR InstName R2
SYMATTR Value 15k
SYMBOL res 224 -64 R0
SYMATTR InstName Rd
SYMATTR Value 200
SYMBOL voltage 400 -64 R0
WINDOW 123 0 0 Left 0
WINDOW 39 0 0 Left 0
SYMATTR InstName Vdd
SYMATTR Value 24
SYMBOL nmos 192 96 R0
SYMATTR InstName M1
TEXT 48 392 Left 2 !.op
TEXT 80 -216 Left 2 ;MOSFET Voltage Divider Bias
