Version 4
SHEET 1 880 680
WIRE 16 96 -128 96
WIRE 128 96 16 96
WIRE 144 96 128 96
WIRE 256 96 240 96
WIRE 400 96 256 96
WIRE 144 128 144 96
WIRE 240 128 240 96
WIRE 400 192 400 96
WIRE -128 224 -128 96
WIRE 16 240 16 96
WIRE 192 240 192 192
WIRE 192 240 96 240
WIRE 192 272 192 240
WIRE -128 416 -128 304
WIRE 192 416 192 336
WIRE 192 416 -128 416
WIRE 400 416 400 288
WIRE 400 416 192 416
WIRE -128 448 -128 416
FLAG -128 448 0
FLAG 192 192 B
FLAG 256 96 E
FLAG 128 96 C
SYMBOL npn 144 192 R270
SYMATTR InstName Q1
SYMATTR Value BC847B
SYMBOL res 112 224 R90
WINDOW 0 0 56 VBottom 2
WINDOW 3 32 56 VTop 2
SYMATTR InstName R1
SYMATTR Value 1k
SYMBOL res 416 288 R180
WINDOW 0 36 76 Left 2
WINDOW 3 36 40 Left 2
SYMATTR InstName DRB
SYMATTR Value {R}
SYMBOL zener 208 336 R180
WINDOW 0 24 64 Left 2
WINDOW 3 24 0 Left 2
SYMATTR InstName D1
SYMATTR Value 1N750
SYMBOL voltage -128 208 R0
WINDOW 123 0 0 Left 0
WINDOW 39 0 0 Left 0
SYMATTR InstName V1
SYMATTR Value 7V
TEXT -162 472 Left 2 !.step param R 1 10k 1k \n.op
TEXT -40 8 Left 2 ;Series Regulator - Load Regulation
