Version 4
SHEET 1 880 680
WIRE 16 80 -96 80
WIRE 176 80 96 80
WIRE 352 80 176 80
WIRE -96 176 -96 80
WIRE 176 176 176 80
WIRE 352 176 352 80
WIRE -96 288 -96 256
WIRE 176 288 176 240
WIRE 176 288 -96 288
WIRE 352 288 352 256
WIRE 352 288 176 288
WIRE -96 320 -96 288
FLAG -96 320 0
SYMBOL res 112 64 R90
WINDOW 0 0 56 VBottom 2
WINDOW 3 32 56 VTop 2
SYMATTR InstName R1
SYMATTR Value 1k
SYMBOL res 368 272 R180
WINDOW 0 36 76 Left 2
WINDOW 3 36 40 Left 2
SYMATTR InstName DRB
SYMATTR Value {R}
SYMBOL zener 192 240 R180
WINDOW 0 24 64 Left 2
WINDOW 3 24 0 Left 2
SYMATTR InstName D1
SYMATTR Value 1N750
SYMBOL voltage -96 160 R0
WINDOW 123 0 0 Left 0
WINDOW 39 0 0 Left 0
SYMATTR InstName V1
SYMATTR Value 8
TEXT -128 344 Left 2 !.step param R 1 10k 1k
TEXT -128 16 Left 2 ;Shunt Voltage Regulator - Line Regulation
TEXT -130 364 Left 2 !.op
